/*--------------------------------*- C++ -*----------------------------------*\
| =========                 |                                                 |
| \\      /  F ield         | OpenFOAM: The Open Source CFD Toolbox           |
|  \\    /   O peration     | Version:  v2006                                 |
|   \\  /    A nd           | Web:      www.OpenFOAM.com                      |
|    \\/     M anipulation  |                                                 |
\*---------------------------------------------------------------------------*/
FoamFile
{
    version     2.0;
    format      ascii;
    class       dictionary;
    location    "system";
    object      controlDict;
}
// * * * * * * * * * * * * * * * * * * * * * * * * * * * * * * * * * * * * * //

application     	rhoEnergyFoam;

startFrom       	startTime;

startTime       	0;

stopAt          	endTime;

endTime         	100; //680; //ending time t related to Modesti-Pirozzoli Paper

deltaT          	0.0001;

writeControl    	adjustableRunTime;

writeInterval   	10;

purgeWrite      	0;

writeFormat     	ascii;

writePrecision  	12;

writeCompression 	on;

timeFormat      	general;

timePrecision   	6;

runTimeModifiable 	yes;

adjustTimeStep  	yes;

maxCo           	1.0; //0.5;

maxDeltaT       	1.;//0.01;

pressArtDiff    	false; //activate artificial diffusion on pressure terms
convArtDiff     	false; //activate artificial diffusion on convective terms

ducLevelPress       	1.00;
ducLevelConv        	1.00;
epsilon            	0.00014; 
minfty              	0.0001; // Reference Mach^2 number needed by AUSM flux (turbulent Mach number for HIT)
kp                  	0.25;
ku                  	0.75;
rm                  	0.01;

functions
{}

// ************************************************************************* //
